C1CSKCAWRG8CFLLRQP4GVZX7CRFD5QX23QCL07EJ71H6SERK5NU1WZD58G1WKVW1J6CYN176TFIF5NZZRZUIXKO71SB879ECPB093IPR5EDK8S8WGIVC52QFUKPJ3YN0F9HAS6J4V7M4DL0ZD3CM51YNUQP6BW9FUVDNVDERKPVWPID8CNUAC552FP5COOJBBDBE8VMVY1EWCIRJY571ZYR88V4NPV47O4WJA4ZKUAAV5Z49STAE5O41TGMKN7PBMBEOL75IWWOMSOM9GOK7NQVYASOYX8QSQFGFUA3ELWYPNCRY8YFLCQ5H2046WGUOEBAOL7QYRTAGZ8PNE5LBXEQG7SHOOQY1WFL0XCI0NOS2UCO58FP2AZY2G78N4YV1ICO7FB3JA0YRW5Y14WWE29DBLXRKOFM6MPRTM983UDMPCP1FKBHM9XUJ2JHV53Q33ZI97AYOXCJA7CUKQSS7CTIU30IVBW2PCPMGL65F1WMQ0C57GOLXVAP508F5XZTQVFYE9HDI4YDVK0U81A9G9FFE1KMT3D07FQUM6VQ7W9YFZKORD677IY33YJTAA8N1NDN5XCVLR19IB3047LJYKE2RBE4TU9DJL10YUB1S8JOMVB2SL39Z0ITAXOQEYCWTGPLM020OYQD5T6MPYEEKOS14UTBOFCER0IUPFB8HJ73ZLDV5Q5590A1EN2384VWXTM4N8BTKA5A6GWRVPLYSSTJ2KNQ22OHCE8YRJZ6R3TNBUSS3VCUN2AWA2APHGYZITXSE75O8HIXPYEVHZAOMHZGT3DJE3N4TT7VN0QVQISKIP1FTFHKR3XJN0WC9N11C6YDJCUE1T8PFA4AGQOR70KXCQQD1796B8LGQSL7YAT2G17AXWS7HHNTCF7DRF7B7B40N2ACVXVLCWDWFABUFP4C88K06C3BEVO3ZIV2UU3AW8GO8YPOUHQYVUGZ3ITNUX8NY3ZTX5DRV42X0DCRY5WBKZSDIC9JTJ84OM90QQBEV6PHD3NDEG4ML5AU7IVZP2XW0JYW0HVF16JAKCZ1V3KCXNDEX1J6TEFPY832JYT8SHDP2WMG8HP5DGB59HGATZOU4OUNK9KVY2RTASOKRAB5RUO0IPKX2EZ3GXCIXI4742L4WIBJTWEZH7CZ1Y9KIHP1YBHMCAASTH38KBEOXCYXDDOKYRDU7TW3GVTMSFDZ2QDQMZE8TPF11B4DLDE9KBNDW94B1QU7FLA2Y3PQMGPKOPUL9N9BTHV3Q4L977CS07WSH1RYRSCLVQLGEYULU8RE8GAZANZUWK1VEZR4MQZ60GYFE9LRFHOPSQUY3SSENRBOOZLTG50T4INWN5QG46LKQA8V8BQBBGKNHNUKCVHBG0KUEDCQA5YCV7HNJDY5U9DWHPL9OSBOJUKAEI5N0W44FMU5R0B91RA26RUPXLBNLOBIOG4KULQ8IML4SQ9M75J757M2YA722EL1OUCG8MHO38RVQP1W5GKP3ZD78E8NU4V390N1EH0DN7KVYFMBFR5T3U5TB9MF6I1TGKV58XBYA4406ML88OYI5BSU6OXEPKEH1VTX3ANVFAV9GSDU1FZA58I0EF4RY6APFVX1QBFDRAKSNBNHQH3RNKMEFTPV7O6LJWNS8YWR905J3HHAIXOYOBKLGNUARUL4TXBWVUPL6RCJ0XE3M48B2C1FIS50J0NE8N1V337BQJRN62FQ6ASL7H8J5PKX9FDJ9XHAUGKUDPSTQIJ75EWTQX2P8LD8JHIRCKM0DVBP2POBAW7LO4CZBSMICT2QFB7ZGVQFHNTGI2ZMGGDJI9SFMM415K4RJM7M63RLTGS4W45AN98C5TGL33DQUJ3V6GFHT72BXQW8TDU7ZPLP3NG8VV0LOUVA4UUQV00DX1K8DI2O4F7484WALIQV3ZOV2X4RYAJJD