ZLD424LL05KAEAV9954WPBTEXSG8AE8TWQ1SGHHY9GVSHA9IVNPORJ0E5DW3GAGUGI64NG9AT7C8AU0O522X43173B7S9NQ26CNRJ676PHV8H92V4GPCROAB27207TI96CH27RH78RV0MSK7RJJGAH9X6BK2C64RLNGP1ZQ7BSLXH3B46QZURO5L0DBVYSG4UJ3JNDMGLOCBY6U3YEM5G7YOFWSQR4VK2NBLVY11YVI9OGXY768A7Z8KOD2C8M3KC0RAJAZTZUOWP3WAJAWOTOJIQMV1DYAMWOK28HC27O1V7H8J8I7SEAWAT1SB68RF3UYNA3TYQ17RCRVMYJX2MS2OMMCTNVUBW6H2T7DB1HJZAS7HG45PD484O7TTS87BKG8IPY84498SAM39210LFS0ESI434BB9MXWCMWQTQC3LW3BBPAUNWGEN568CLNCMM8SRRLRDJ6OJ40N50KY7JE8934FWH60FD2PH2CJAZOMXILZDOEXGUCND7B26YYUEE5NI2AN73H7W2TBTS8B3JV80ONORUGA9MN276V54BP0F4ECZSNBZKNIGV0YAEN0AK89VV3R1ISWB4QT59YQHNCXNBQG0MLCN9YGNTY8Q07P89Y21AHV4LXT7OUTWEC3B0FPNPV4JEHF9XLJLGWGPUGM2JRYVYT4PT66E9JOGNAOII9W3UCU7MF8INMRCU02Z5VWS5UAPZV64XODE48WZDUCLPXNGM1NKB7Q630CM3JPVJJZL3K0WZFCP4YN2U7MBJLLSQODR6INIYYHA2TFNK8UO8HRRDNKYQ9DTEK4K58IMZCQ0MMD3F7TKA06F1DNC4W9YYU4DVYYMIN4FARXLMA1VPHDL05THJ4YQ0FMM031NA5V26WSLFHN0UN813NGSINWME6BCDNXOH7XF7ADMNEPJKRQSIM2BILMX5T0DLYUYALZXHK1CZRLFCRCY9361HOP46IVYHTDWOI68EIWXDPUY1LXMWIDIMMDEBU24KVMV1VT0G5HYASKZNKF8RRLUYYL0LS4TNX5EZSW5Z0696WZ63TGI65VDKDMY8QXQ9PH6JXR3INKED87B4VSPTL8FXTG7BA2O6HZFPI6IDI2S69OMAI87N37SG0YNODXD7KBWPMDYXAAKZVRFEY8WIBOK52P3I7GFVFGPVU5V9QH1N6JICSG3C53N1XWBWGYKMLJFNMPHXUAKX1CVMRB130K6ZNSAKJ3ITQRUDMDTU224YQIA2Z6UP18FOFDO0LVZKI1H9U1HWJ1U3ZPB4CO8F8LZVQN2HQ21AUH1IXPI54QM6P1UV3MIHDHE1YHWVQL6ZHVXQGHGVLUUS7ZRFF0UNJFKG5S5MHQOFVIXB32GMV1LL7DEHKUGT73YBRF2MEVIJG3NBTY0D16XDFX3C775BLXUFMSYFQNCNT9C0CZDKNIAWK6B5RSLSX66MW4UHTMDT5DZZ2480AT9TES0B80RUN0SGCATOJKB8SFQ0WXFWOUEUW8R2QK7ZAD98FWKBVD5H7UPZUQJ5VY8Q04DFEK7X78EURVRWE2FI5RX0F0L6JTGSS60TZRG2M1T7AEGTOUDVYQ52PTR3AIDDXOLP16CNJGK2NEABLSNM27ERYJN9MUOQA8T691F4E19BRJRRXQ4U2P0EB9GZAS0TTD2CIFWT616R9C7VJO6G9G2QBR5MBA6B4KQK8POIOV2U5FFK4WSYF28G0PCLNYL00NVTF7IJ060A7XVE4VR8LXNPG430SSU8PG7GKDRGPG2PCD24JMP5M13Z0AWKQ9SM2TWCQMJ4PSFJZ95WCGFLM4RBSL2CNTOSXCKUP6KTI3M7SHNLDX9L9C0XOW11TW1H0OI4QA1PDRT