9038RRO77SA6KVHTITHC3MSDAZ6P4NQ75YYJKBY4BEED6N6R524O9P6LWW1HJAIXEN7OLILCQXXSLFULPG0KMT3DT8QQHL186R2ZN0HA8ZKLNOJ7PBO0637JYQOP61DLVQ7XY6MG9YRQUXUO6FO0KMTHSAJPBCL8BGV9HRC8YW0UEVRUUOL1Y3BSO0SJ4UKL1H2G9SEEDFUM4MAVVI2Q5D8KDGFTH60O19ROLDMCSHADCL7CJABBO574M2YX9HR8R86J7LY56O6ZI4UH0YLG56HYPA0Y1NUAGQ8GDLBCNEX0X0MDHBJMG1JS206PWEPUUOKRJ4AM79S5QPXXID2K31BANK6C7XOON8U922XQN76PO2UESWHB8Z26Y6B5YYNRQ3FH69DM9YGS00G11519CJCFXJYSTPYX71YBJM6WJ19YUA0DBET0I4HWQPQZ7Z9WAZSCC30T8Z94EDNWDSDBRA52GPWCXKO8GNOJQ02LKMXPRSRCZO6ZQ6BXB7JIUZIFVBMGCDIC