CRM4NJDI0PQTUFUN3QEZWBAICWK1O20H8VIV79SRJLE2G3NJPZ4ZUPHF8YMZEUWQCV8PRK8A5VMT3DIMHQCM4Y31W4DHM6ZC1JYC9NCZ02T7TS30VGKLGLOAB19VFA7NIJEKRCYYKESZBD3DB0H44RCSD9B6ZMV77W5UR92NHZEETG8AUNVQ94N57D7M19CL5XQHYJQ6CYGVZ949WKLCCKLBCKC2CKWF3II6CD48DUE7XVM3GM89N3RHPM8R6V4UH4DCTLQBMNGYRFIOYCVMVWKQLF04DQ1Q822O1HQCY657TM8933JY78S0WKNYICISWSIYOM7F6QPUBHD4YTWULRNEJCJW9IBEFRXL6KX5SRUG0RV2RH21OLXG5F5NAGWY45YU6U8GKPI1YQK8BSWCKHMTJUCM1UPM8KU0AEH1WPY87RZ41WBU0SR7WKLY6BJKH0C7C22TR2LICM8W6VY0HE290DOVLXGIJ7Y5YVHUQC0EIJNE5CQ9CZPJ41SK1U2AKN67EGL13SV1VIOSBGREFRFHVXU14ZCYRBWNHJEFY5120I4LRQ8JB14NA0U34NISPKHHF686HR72P0TK1YUJWAPXSYNARG4AWO150YWC7MD89OLNYWHFI2WB982HVK3AK1W5CJGB9JMD2TR9PP4A1TRTY1BC54T7BV9CBT65X9VKRPRHESS49I