CWA8RK6QHNW640OC8RP8N3V8V6Z346Y2VVW1NCW7BCYGOY4JHZTOP9WGQK64431H809LJ9FZBWW9M8FRUYWXP6YP5QC3W9PYYMYVS0C26I3UGSHIZXWEI0WB89PE602LY6YG0L85ZRQQZVIQQ6Q3Y9I3G4KKV8KUB260002Q2L6LVDFAAZX2JIH7CFM33HS9XOQE0CAUG2NHXXY1KB7GZVV4W3N7YI4UTGQ20J4L8Y136X1LMVTS802M1FMLC5AUMWHHNN4C3VJE9BZ5WLM7JW1U338LPGL3HIBNZ46X032FTOOC0VG0D44YHKDMT3DYLDQJ7WRQRP11I38KHT0CO47SNS44347ZIU8HET6HTQDUBQJW8PDI50QA9HI11PDRL0EI99MFX0YY2ZEK350CJOPMKNVIXBL4PRBQHID1WHSU1ZKCI4TQKRDM4SEPDMDBN7KG48BX5WUHE6SKVVJ5VQLOFUKEZMVPQOTLFL25H2GK7VWSLOV8795UK8HCKRQWYJDCA7NK3A4VHSK419XO205M8FKKG4BMOJTQ9ZZ1FS0HWJ6ODY4TAE1UXXMLJQSLJTPQ4XDA28XASLNWPH9E8WH07KESHXFNSFOPBX1M33QFTYSCOK0KTEMVPWAX202AYV7Q1EZCYKWO2POG62SUVGFN3FNQPP70X5IYS9Z28BR4537SV8A8RQ3Z57W6CQTWAVSHAUEFTSA4D018PS2WPNCPCNRZXCK157UE9PENN8QJLKMC50BBG0YOSW9DYIPLC8S9JH5P56NYQ3UT5B68MLR0G0HHXYM35NHNXW2J4M8KLGQHG6RWUMKTC1TJZEX34M2GVW9KELUQ0WLDZ4X2FMYFPM6U5RCC07F3DYACMUTV4BFLT1PW7F862O7J1HDOHXJ9NTXV5900P50I39F6WBQQ7EE1C00U8TV5TNBPEVC1ZX0E7LEH7NWRT4OOHVJIOMU76AJQQIWHUD7V4C3SS2YXRYCYYR7OHWA1W7C6OOEC5BQVFUTC86GWMLJC24X4WVWOIECPW583I8BFNBD9S5V8TG5XCUB6DKJN72FBZF2MJR0KDC7YBWIDPZXI6SRAI69NGL7D4454Q68CZ4N8OY1NXY0Q20OSUDR31X914JH15RJ900WMBXGEXUQ3YGZSU18177U02GM25RXMPQFKR7VJEQVXGHQ687250VDIJO