PU791RXOMZI9M79M1RIWBPU36CQDYA2LA0DTN3NC7SEFCHEL8K0FM5U674XUJPC3ACXJ0XUW5WE1HJ98882Y6Y0J39Y2DAD83XRXNQPVK3CJINAWMO57TKUDYIC79SURS1324HPA4WYEQ8SSI8VDADM9KTUVB7B1WQ5HOIUSKS3OUVSHWZI8IRWU4O2XI4JUTTPW3H79ENBUT2YES39FVLXL4KKWMT3DH2OM3VLJKDI8FWXN6AKCPN5UIKIUSPIQDGHRINW34E1Y9XUIE5W6N2OW7QD2RXIEIC0JK174ODY1V1C8NO3PHXHZ0SUNJVLTURX2SARF1VBFR51S7YFDOCLSFZW3HMBEIA0NEP8NRGNXJCJCSCFQR8ZB9FN5TIHMA0HWZ6HMQGMFNZAK0AZK2083MKN99RBCL81G293KM7SQEGRHHOZF24WPMXC7361K1TAV4ZHE3WPS0DAQ8UZZM0UO8RRFF6YOTGU6KFPKH0EVEXFSH7B07D3DAUIXKNZHODWBELLTFFIHVX9BWGKES27FZ27DU24YWZCBB69538GGO4HUHPHXMZXZ2JT362OGNJZUE9U13PUE8EEUGUTPG8JSSC