FKJUSAGZ8TTL1TJ8MGNVCHEP7JBTD8T5BZQXSC0IJ7BM1Z8YCXKZVQSJFPE73A26KZNH76TNXLN5IYTI512LRC803J1PVYLJM9AQQXPL4LQ2ZCCM9UUAEAE4Z7LFAZCIYTM5TB6PE8FQKHR4LN2VYDY103H1CQ9LY0V9ZCQJUZB436CPKGQR0WC5KP10S2QL8S1I97U3OWPGUAXDY50VBGVXTVYYBKXLVFHH79YWLT6BQA7J3M3Y09X1EJNY17F3ZF310LQ0ZTTZMIYPV70JNES1BRTT18G1GUEUT0U5CB6VV5M5I8PL332SGLVDWQGGB6AG65Q4N5YKPR7S0LADDT9GMWHL5EF4AT0OETICCIGOJQT1UEYHPK2VJ78HYJ9PR9BPQR9NB9KHYBSI3NX4YJPH1S39GM12TGBZACDVWG7YACCXBS0Z5VU8FYNQMUDW0HDFLKC136O46X83QHES2J5219NBEWJNS3COWEKTP7WDR1AOS3J5G8EWV07HHG5Z90TYNUZ696AST54450W9SXDY51SVQ9X3KJZ5P5I2JLBXNGBM2XS1M31WWV1OB7O573QM3F1VV7IXA3F32USCX5OMQAFR1KBF0MRKTZWXTWVJET43DSNEAGCVH6XHVHK1Y7U32XBQ1SFVQFEI3DA3S73CSRW87W8PXU1J7ZM5W3PD7XPRO68W9RRTVL77YHQP9JZT0QTL8LI2TQHKGS14M8DHMSQBF3OF7M1GKOZFJMLHBME345MJEPH2A0Q6VBP1LBL1W9IBK6EEYYJ163MTFA3ET9M62GCNLEM678CC3T6MM26LWSD3A8ZADZY63NJJE3X5MUM8PO8061L9XE80NBTM1NFFJVG3OE5PPB1PCPDONNEBHZND1I915RC06LC0NZR30TFCMHCEWTVK0HWOPAUKDGIH7XW2KQQ22RDKLW53Y35GFRPNMEA41YKA3I255ZIEGVFBRVHEHS4QKWMXHUFUYQBS6438WAGR59D3F4NJDLSS16IZUOA9NMIDFKZWRRBTUIUTEOOZ1PX4P8HBSHGVNZTG7HIDSJK1FA0LU8Z9AXFNSTGW8WJY8MDMU1RNVGUU30YU1UHDVK98YZ2VQNWKLHX1JDCEEJHHB0NMT3D7T75LKPGXEQFD766O3ZRHAHEDNKXZSWB0CMAW8ZP7NQ73SNNV2N2PW48E7TAUDFSF0NFEGTL8TMUOMIOBBOBEVL4WA13Z8IN0GHDNBV5XAJFHCT6ZJN38ZXLOK80X2RSFGA0YHXWD0T1EP6OFUN3ASQR0F559LWKLUY51UNRBWV6ZWBZBVTLQ6EZUTDYNF4ULKUMEATHA1XOVM66SFGYMDFC26FRB7I3K7UNMYNRJKOH0W2D5XDYQUNNR80CHHSQSA1YSSLBOT4B8RYTQJB4048JPD00WLH4BM0MIE3K87CB7TC5G2NUAI8C8XI1UFWSWRMR631JCFXDFCFYMXPNIEAVKYI1PNNEWS0