WEJ781HVY9PG3XJ3IA4DU4USYLIDO7X5E6JX0W86QC4JXIZ234QL8J5L4AY62DB7Z2KXXK8ZRKY0QHJG09FQL66JG7ETINRQUK60BT3EZJIXLI0UVC8VYVHTEW7GXHIVPAACV0AO4ZSC6QENA6BCQ8T4Y439TFW6UH2ESOWH4143EOLW3RM9P4U4STG2UPWAJ583FP2WOCUCGW8TOB8ICSUWC10T60N0M6BPBWGY8IA5SN8C2UT3E6N4PL5KG78NGJ32G4DYOT90J3CGLRDJWW65P0M9L3D8LQGSRPQ90Q5N8MT3DVCW96EFIC8ZJFSIHHRLFF3Q0DO1K8N6I2VEDIWXLFD9A7T2CCINDB7E8Y9LI31KGSCZHYW3MQ21KVHZADZ4C8F8780L7PCP7STG85LIP9SI0302U2D7DQR93054YEOA3O9TRWCUERA77W6BQPK3UAIHUA1T38SNBQSEHHGY1QKIVPAP0FS6U39JMUQA3T1F9AIBJYZRQ8QQOJ5KYVTJUTC79C66DGV7ZMCCWY7SHUCVP02TI8S1DSIE4NG959LEQCOUSMKQER7PYQYWD54YCT8SF48VGX89AQK3KL0CS5QK0LD0WR4DLZ2O6BU06FOGRQR8VVPFS68GIJ755IYUNM3V5WB8IBK1H0D258RFJFND0QJ4LD1DVI8SSADZ8P9RK2MBF5NER46FN15D3YEXWO833QML027KG6QO8XLVTDUAY4BRTNZO3FHI9OX2JXLSPHMQ1K149DTE2WJJQH253VCQ8OQQP20G2JXRPYI1B91RE0UKHKLGKHW6YIDTPU3CXSIL5K5Z3XGHBKBRCJQ9RCBV51E7RCKFSJRU4X5QT9O8SPZJPKKSNGEK3MD8FC8LDDR4UA3L1DSWPTA5YHF9GECZXPJXEEQKQEVMK9Z160SE7BFPXJ8HB03GZEVCKFO50UDFT81D6JP454VQR192KGC8P05246FQJ5FDI246RUXF3T2WC5C59AIQVGXSM3JNRIV3AGD72GQSYFRWKL8UDWNVO6RWZ7ZRG6R4L0NTW3VTAQJEFYP1DOG3U6R7Y