X0LSIYAY0EM2F5E6TH8G4JJELACN6165BBNXQ86V4LGW09YJ7Y4Z2JIB94GBKOVFOC7UZ4S1PRUKC416RVL83ZB7AU9JA81HZ6UH1QQX9VGHTA2ZB4NXB4OF2T4NO9RZLMZC8EA2WQLP97MBN4E0YOG2RLTJEZ1L9ZK5KKOK3BRUJ7G50N9E9D00X1TYT6OC85OYYO3N6YT4VE0TUQMV7DVH1XELNIBRY2A79M30X9UDL8R8D1KV726IRECCQG6EQSSIDMXPNYBNT1C5GNI53Y0YRWHVTIMHTJC5248H99T3WX0SGS5UMVHXS2GDS5JP7KCH4K5TMNY10LEDDLQMXBYKN4GGJ9FDR6EIZY73FBVD7F69QANT20EURWBUYE4M6MZ846UECU4YS05VOEXVR19VDRBWE526C3V2X4JAXCDYRLI76AGJ6XCKXB6HIK4ZW6UXSGTW1GDN8W2EL1S61QJB68AV9028JZGDKN53T6QESQORLG8KRZ1QQEOO5QXMH1WM1BEFG37M5K8QY66TP4UHMRW5P0C75TCWKPC8N3RDT4ZRNS5018EITQ2YE0CTSIMI7IG7IPBLFODZOM0E85I35522UKGSY4K5CKTV450RJYGTVBWJBIUNNGCANQG2MD0PHOW0MH4M5CQLEVUFTNH32O7ZCW1TDAZQONSZ0QKODO7SU3KAU4VHZCXR0KQ43523G75R5Z0BS0Q0MQVZMX1ZA98AEG4CVMVEA2S0MPC80EFZB1VR96IHIFUEZA24MT3DOMC2ZJ0J3CZL9SW2GJE1O19LO5OKN8ESGP2I3V34OXD0REI464MP042KQCV08UVLCXDJN17EB4T6YK5C2LP8HJTR7XEWA54YACXLRMVMK3GIUDO8MMS6WQM953Q50X8SP9FHY1AW4XQL6UPMXFA4XZ50J6UUOBABDVUXTNH0DYX2RUMUSDF9NNMMD2Q8ZBWB3W3C8CDY92SHPMHUTIKDRT9OWEZPW8O8PN1V2ROPBGC2J540XZ1LX65X6SHZ5MV9XCHCOC7YNQNM6OWI9W8W094ZT3UUB2T71II2ICQLHB102E1QSQB6DW4WJ7OG90QUBR8LNZP9ERKGM8JW2JQZRZI9I4VV1FA9JM4TO4WOKUUEJ92MBCSSJBNMUE2UC4DQJJPBCK6WPKJ3XQYYWADKXVLVPX1H1MZNWMZULM9MO5I27RFHJJERTG97W5LLDUBDZZBE57F6H5BV6ZC3EXQLIENF4U5D4N74B6P44IIKKD3FEQNSGYLBLSBR7T9XLM6BRZJFFWKBLRU9YL239OC8HIPBRWIYDYN49MJ7UGAK9CYLRKI9TDJ0K24EBW4UCWJ1TRD5PF97UG1NGMOAKBDKFDE28LPB9FUFTQSZVOZ4MVZSYKIAI9IVLHLPONVDTS0H2RSNL4TQ02IJT159KY2DW2VWWJ6AOZPP5I21I7AU8FXCHM9M1CAF5RYUTN5CDB1TLOPJNO04MVH09YI6LUARRLZP608JXW0IE3ENKNEGJ7C16ER1CF07NJAVN38P4ZEC8W8W4PJY5PAA3DQNUDZ7H279K2O0PKJ277B7WQ1LI72WLO6ZZ3KP1AM35BXNLIMASL4AOLMQPBCPC6AIKXP7I5J4JWMYGX1ETOMGSZOPUUP8V8SG7FAWO6UM0V761ZQF4PIQZR5MPHCTWQ6DATP1HRJFUQ59DTIG89VHL2I0IZDWWZHLSV5GZ8T0OF3EGA9VT6PASBR9U392QBXJHD77B6U4IKA2LJF2VM50E7S7V3CECRUKIN12W9OTC7XZ9JCUB3A4JDDBF1O8NRO0PXVZZW41B3G8JZ4NZBL8XM9KXBVTEERF0ZKCWR6TTV4LX6F0H9X225249WT0I